%chk=benzene_b3lyp.chk
# opt b3lyp/6-31g geom=connectivity sym=loose

Benzene b3lyp

0 1
 C                 -2.06111859   -1.91892428    0.00119900
 C                 -0.66595859   -1.91892428    0.00119900
 C                  0.03157941   -0.71117328    0.00119900
 C                 -0.66607459    0.49733572    0.00000000
 C                 -2.06089959    0.49725772   -0.00047900
 C                 -2.75850059   -0.71094828    0.00051700
 H                 -2.61087759   -2.87124128    0.00164900
 H                 -0.11645059   -2.87143728    0.00251400
 H                  1.13125941   -0.71109328    0.00183300
 H                 -0.11587459    1.44947872   -0.00005900
 H                 -2.61102159    1.44953872   -0.00143200
 H                 -3.85810459   -0.71076528    0.00033700

 1 2 1.5 6 1.5 7 1.0
 2 3 1.5 8 1.0
 3 4 1.5 9 1.0
 4 5 1.5 10 1.0
 5 6 1.5 11 1.0
 6 12 1.0
 7
 8
 9
 10
 11
 12

